<?xml version="1.0" ?>
<xml>
	<section id="CRUD">
		<execute>
			<assign var="res" class="Auth" method="isCertification"/>
			<if var="res" val="true">
				<view baseview="base"/>
			</if>
			<else>
				<flow section="web/login"/>
			</else>
		</execute>
	</section>
</xml>