<?xml version="1.0" ?>
<xml>
	<section id="Generatenewproject">
		<execute>
			<assign var="res" class="Auth" method="isCertification"/>
			<if var="res" val="true">
				<view baseview="base" flowpostformsection="web/generatenewproject-execute"/>
			</if>
			<else>
				<flow section="web/login"/>
			</else>
		</execute>
	</section>
	<section id="Generatenewproject-execute">
		<execute>
			<assign var="res" class="Auth" method="isCertification"/>
			<if var="res" val="true">
				<if var="autoValidated" val="true">
					<assign var="res" class="ProjectManager" method="createProject" arg1="Flow::$params['post']['project_name_must']"/>
					<if var="res" val="true">
						<view baseview="base"/>
					</if>
					<else>
						<flowpostformsectionerror>プロジェクトの作成に失敗しました</flowpostformsectionerror>
					</else>
				</if>
				<else>
					<flowpostformsectionerror>プロジェクト名は必ず指定して下さい</flowpostformsectionerror>
				</else>
				<view section="Generatenewproject" flowpostformsection="web/Generatenewproject-execute" baseview="base"/>
			</if>
			<else>
				<flow section="web/login"/>
			</else>
		</execute>
	</section>
</xml>