<?xml version="1.0" ?>
<xml>
	<section id="Logout">
		<execute>
			<assign var="res" class="Auth" method="isCertification"/>
			<if var="res" val="true">
				<view baseview="base"/>
			</if>
			<else>
				<flow section="web/login"/>
			</else>
		</execute>
	</section>
	<section id="Logout-uncertify" type="web">
		<execute>
			<assign var="res" class="Auth" method="unCertify"/>
			<flow section="Index" target="web"/>
		</execute>
	</section>
</xml>